Version 4
SHEET 1 1792 1364
WIRE 1360 96 1360 64
WIRE 1568 96 1568 64
WIRE 1360 128 1360 96
WIRE 1568 128 1568 96
WIRE 448 256 448 208
WIRE 448 352 448 336
WIRE 688 352 448 352
WIRE 448 368 448 352
WIRE 336 448 304 448
WIRE 400 448 336 448
FLAG 448 464 0
FLAG 688 352 Vout
IOPIN 688 352 Out
FLAG 448 208 Vdd
FLAG 448 416 0
FLAG 1360 208 0
FLAG 1568 208 0
FLAG 1568 96 Vdd
FLAG 1360 96 Vin
FLAG 336 448 Vin
SYMBOL res 432 240 R0
SYMATTR InstName R1
SYMATTR Value 65k
SYMBOL nmos4 400 368 R0
SYMATTR InstName M1
SYMATTR Value nmos292p
SYMATTR Value2 l=Ln1 w=Wn1
SYMBOL voltage 1360 112 R0
WINDOW 3 -247 55 Left 2
WINDOW 123 0 0 Left 0
WINDOW 39 0 0 Left 0
SYMATTR Value SINE(0.6 0.05 100k)
SYMATTR InstName V1
SYMBOL voltage 1568 112 R0
WINDOW 3 -54 53 Left 2
WINDOW 123 0 0 Left 0
WINDOW 39 0 0 Left 0
SYMATTR Value 1
SYMATTR InstName V2
TEXT 616 224 Left 2 !.param Ln1=180n
TEXT 304 552 Left 2 !.tran 0 50u 2u
TEXT 304 528 Left 2 ;.op
TEXT -1200 -344 Left 2 !*SPICE 3f5 Level 8, Star-HSPICE Level 49, UTMOST Level 8\n* DATE: May 21/09\n* LOT: T92Y                  WAF: 9103\n* Temperature_parameters=Default\n.MODEL nmos292p NMOS (                                LEVEL   = 49\n+VERSION = 3.1            TNOM    = 27             TOX     = 4.1E-9\n+XJ      = 1E-7           NCH     = 2.3549E17      VTH0    = 0.3694303\n+K1      = 0.5789116      K2      = 1.110723E-3    K3      = 1E-3\n+K3B     = 0.0297124      W0      = 1E-7           NLX     = 2.037748E-7\n+DVT0W   = 0              DVT1W   = 0              DVT2W   = 0\n+DVT0    = 1.2953626      DVT1    = 0.3421545      DVT2    = 0.0395588\n+U0      = 293.1687573    UA      = -1.21942E-9    UB      = 2.325738E-18\n+UC      = 7.061289E-11   VSAT    = 1.676164E5     A0      = 2\n+AGS     = 0.4764546      B0      = 1.617101E-7    B1      = 5E-6\n+KETA    = -0.0138552     A1      = 1.09168E-3     A2      = 0.3303025\n+RDSW    = 105.6133217    PRWG    = 0.5            PRWB    = -0.2\n+WR      = 1              WINT    = 2.885735E-9    LINT    = 1.715622E-8\n+XL      = 0              XW      = -1E-8          DWG     = 2.754317E-9\n+DWB     = -3.690793E-9   VOFF    = -0.0948017     NFACTOR = 2.1860065\n+CIT     = 0              CDSC    = 2.4E-4         CDSCD   = 0\n+CDSCB   = 0              ETA0    = 2.665034E-3    ETAB    = 6.028975E-5\n+DSUB    = 0.0442223      PCLM    = 1.746064       PDIBLC1 = 0.3258185\n+PDIBLC2 = 2.701992E-3    PDIBLCB = -0.1           DROUT   = 0.9787232\n+PSCBE1  = 4.494778E10    PSCBE2  = 3.672074E-8    PVAG    = 0.0122755\n+DELTA   = 0.01           RSH     = 7              MOBMOD  = 1\n+PRT     = 0              UTE     = -1.5           KT1     = -0.11\n+KT1L    = 0              KT2     = 0.022          UA1     = 4.31E-9\n+UB1     = -7.61E-18      UC1     = -5.6E-11       AT      = 3.3E4\n+WL      = 0              WLN     = 1              WW      = 0\n+WWN     = 1              WWL     = 0              LL      = 0\n+LLN     = 1              LW      = 0              LWN     = 1\n+LWL     = 0              CAPMOD  = 2              XPART   = 0.5\n+CGDO    = 8.58E-10       CGSO    = 8.58E-10       CGBO    = 1E-12\n+CJ      = 9.471097E-4    PB      = 0.8            MJ      = 0.3726161\n+CJSW    = 1.905901E-10   PBSW    = 0.8            MJSW    = 0.1369758\n+CJSWG   = 3.3E-10        PBSWG   = 0.8            MJSWG   = 0.1369758\n+CF      = 0              PVTH0   = -5.105777E-3   PRDSW   = -1.1011726\n+PK2     = 2.247806E-3    WKETA   = -5.071892E-3   LKETA   = 5.324922E-4\n+PU0     = -4.0206081     PUA     = -4.48232E-11   PUB     = 5.018589E-24\n+PVSAT   = 2E3            PETA0   = 1E-4           PKETA   = -2.090695E-3    )\n*\n.MODEL pmos292p PMOS (                                LEVEL   = 49\n+VERSION = 3.1            TNOM    = 27             TOX     = 4.1E-9\n+XJ      = 1E-7           NCH     = 4.1589E17      VTH0    = -0.3823437\n+K1      = 0.5722049      K2      = 0.0219717      K3      = 0.1576753\n+K3B     = 4.2763642      W0      = 1E-6           NLX     = 1.104212E-7\n+DVT0W   = 0              DVT1W   = 0              DVT2W   = 0\n+DVT0    = 0.6234839      DVT1    = 0.2479255      DVT2    = 0.1\n+U0      = 109.4682454    UA      = 1.31646E-9     UB      = 1E-21\n+UC      = -1E-10         VSAT    = 1.054892E5     A0      = 1.5796859\n+AGS     = 0.3115024      B0      = 4.729297E-7    B1      = 1.446715E-6\n+KETA    = 0.0298609      A1      = 0.3886886      A2      = 0.4010376\n+RDSW    = 199.1594405    PRWG    = 0.5            PRWB    = -0.4947034\n+WR      = 1              WINT    = 0              LINT    = 2.93948E-8\n+XL      = 0              XW      = -1E-8          DWG     = -1.998034E-8\n+DWB     = -2.481453E-9   VOFF    = -0.0935653     NFACTOR = 2\n+CIT     = 0              CDSC    = 2.4E-4         CDSCD   = 0\n+CDSCB   = 0              ETA0    = 3.515392E-4    ETAB    = -4.804338E-4\n+DSUB    = 1.215087E-5    PCLM    = 0.96422        PDIBLC1 = 3.026627E-3\n+PDIBLC2 = -1E-5          PDIBLCB = -1E-3          DROUT   = 1.117016E-4\n+PSCBE1  = 7.999986E10    PSCBE2  = 8.271897E-10   PVAG    = 0.0190118\n+DELTA   = 0.01           RSH     = 8.1            MOBMOD  = 1\n+PRT     = 0              UTE     = -1.5           KT1     = -0.11\n+KT1L    = 0              KT2     = 0.022          UA1     = 4.31E-9\n+UB1     = -7.61E-18      UC1     = -5.6E-11       AT      = 3.3E4\n+WL      = 0              WLN     = 1              WW      = 0\n+WWN     = 1              WWL     = 0              LL      = 0\n+LLN     = 1              LW      = 0              LWN     = 1\n+LWL     = 0              CAPMOD  = 2              XPART   = 0.5\n+CGDO    = 7.82E-10       CGSO    = 7.82E-10       CGBO    = 1E-12\n+CJ      = 1.214428E-3    PB      = 0.8461606      MJ      = 0.4192076\n+CJSW    = 2.165642E-10   PBSW    = 0.8            MJSW    = 0.3202874\n+CJSWG   = 4.22E-10       PBSWG   = 0.8            MJSWG   = 0.3202874\n+CF      = 0              PVTH0   = 5.167913E-4    PRDSW   = 9.5068821\n+PK2     = 1.095907E-3    WKETA   = 0.0133232      LKETA   = -3.648003E-3\n+PU0     = -1.0674346     PUA     = -4.30826E-11   PUB     = 1E-21\n+PVSAT   = 50             PETA0   = 1E-4           PKETA   = -1.822724E-3    )\n*
TEXT 616 192 Left 2 !.param Wn1=250n
TEXT 616 168 Left 2 ;.step param Wn1 list 200n 1u 5u
TEXT 808 264 Left 2 ;For my theorotical values:\nW = 250n, Rd = 75k and gain = -6.3\nIT IS NOT IN SATURATION\nModel:    nmos292p\nId:          1.05e-05\nVgs:       6.00e-01\nVds:       2.12e-01\nVbs:       0.00e+00\nVth:       3.59e-01\nVdsat:    1.59e-01\nGm:        7.70e-05\nGds:       1.69e-05\nGmb       1.85e-05
TEXT 1312 360 Left 2 ;Model:    nmos292p\nId:        1.13e-05\nVgs:       6.00e-01\nVds:       2.67e-01\nVbs:       0.00e+00\nVth:       3.58e-01\nVdsat:     1.59e-01\nGm:        8.46e-05\nGds:       1.16e-05\nGmb        2.04e-05
TEXT 1312 264 Left 2 ;So I reduced the Rd to 65K and \nkept the other parameters the same\nCalculated gain: -5.4\nActual gain: -2.9
TEXT 576 576 Left 2 ;Now we got Id ~ 10uA but gain got reduced(less than 3)\nHere we can see when we try to reduce Id gain is also reduced, \nnow we need to find a midpoint between HIGH GAIN and LOW Id\nsuch that FOM IS MAXIMISED
